#Description: 1D tracer problem.  Run until tracer breakthrough at midpoint.

SIMULATION
  SIMULATION_TYPE SUBSURFACE
  PROCESS_MODELS
    SUBSURFACE_TRANSPORT transport
      GLOBAL_IMPLICIT
    /
  /
END

SUBSURFACE

#=========================== regression =======================================
REGRESSION
#  CELLS_PER_PROCESS 5
  CELLS
    1
    20
    30
    40
    50
    60
    70
    80
    100
  /
END

#=========================== flow mode ========================================
# Uniform velocity (see below). No flow mode specified.

#=========================== useful tranport parameters ==================
VELOCITY_DATASET
  TIME_UNITS yr
  UNITS m/yr
  CYCLIC
  INTERPOLATION STEP
  VELOCITY LIST
    -30.d0 1.d0 0.d0 0.d0
    -25.d0 -1.d0 0.d0 0.d0
    -15.d0 1.d0 0.d0 0.d0
    -10.d0 1.d0 0.d0 0.d0
  /
END

#=========================== chemistry ========================================
CHEMISTRY
  PRIMARY_SPECIES
    Tracer
  /
  USE_FULL_GEOCHEMISTRY
  DATABASE ../../../database/hanford.dat
  OUTPUT
    TOTAL
    all
  /
END

#=========================== solver options ===================================
LINEAR_SOLVER TRANSPORT
  SOLVER DIRECT
END

#=========================== discretization ===================================
GRID
  TYPE structured
  NXYZ 100 1 1
  BOUNDS
    0.d0 0.d0 0.d0
    100.d0 1.d0 1.d0
  /
END

#=========================== fluid properties =================================
FLUID_PROPERTY
  DIFFUSION_COEFFICIENT 1.d-9
END

#=========================== material properties ==============================
MATERIAL_PROPERTY soil1
  ID 1
  POROSITY 0.25d0
  TORTUOSITY 1.d0
END

#=========================== output options ===================================
OUTPUT
skip
  PERIODIC TIME 5.d0 y
  FORMAT HDF5
noskip
END

#=========================== times ============================================
TIME
  INITIAL_TIME -30.d0 y
  FINAL_TIME 10.d0 y
  INITIAL_TIMESTEP_SIZE 1.d0 h
  MAXIMUM_TIMESTEP_SIZE 2.5d-1 y
END

#=========================== regions ==========================================
REGION all
  COORDINATES
    0.d0 0.d0 0.d0
    100.d0 1.d0 1.d0
  /
END

REGION west
  FACE west
  COORDINATES
    0.d0 0.d0 0.d0
    0.d0 1.d0 1.d0
  /
END

REGION east
  FACE east
  COORDINATES
    100.d0 0.d0 0.d0
    100.d0 1.d0 1.d0
  /
END

REGION middle
  COORDINATES
    40.d0 0.d0 0.d0
    60.d0 1.d0 1.d0
  /
END

#=========================== transport conditions =============================
TRANSPORT_CONDITION initial
  TYPE dirichlet_zero_gradient
  CONSTRAINT_LIST
    0.d0 initial
  /
END

TRANSPORT_CONDITION pulse
  TYPE dirichlet
  CONSTRAINT_LIST
    0.d0 pulse
  /
END

#=========================== constraints ======================================
CONSTRAINT initial
  CONCENTRATIONS
    Tracer 1.d-7  T
  /
END

CONSTRAINT pulse
  CONCENTRATIONS
    Tracer 1.d-3  T
  /
END

#=========================== condition couplers ===============================
# initial condition
INITIAL_CONDITION
  TRANSPORT_CONDITION initial
  REGION all
END

INITIAL_CONDITION
  TRANSPORT_CONDITION pulse
  REGION middle
END

BOUNDARY_CONDITION east
  TRANSPORT_CONDITION initial
  REGION east
END

BOUNDARY_CONDITION west
  TRANSPORT_CONDITION initial
  REGION west
END

#=========================== stratigraphy couplers ============================
STRATA
  REGION all
  MATERIAL soil1
END


END_SUBSURFACE
